
     RDKit          3D

 12 12  0  0  0  0  0  0  0  0999 V2000
   -1.3806    0.1868   -0.0687 C   0  0  0  0  0  0  0  0  0  0  0  0
   -0.5310    1.2897    0.0176 C   0  0  0  0  0  0  0  0  0  0  0  0
    0.8496    1.1029    0.0863 C   0  0  0  0  0  0  0  0  0  0  0  0
    1.3806   -0.1868    0.0687 C   0  0  0  0  0  0  0  0  0  0  0  0
    0.5310   -1.2897   -0.0176 C   0  0  0  0  0  0  0  0  0  0  0  0
   -0.8496   -1.1029   -0.0863 C   0  0  0  0  0  0  0  0  0  0  0  0
   -2.4562    0.3323   -0.1222 H   0  0  0  0  0  0  0  0  0  0  0  0
   -0.9447    2.2945    0.0314 H   0  0  0  0  0  0  0  0  0  0  0  0
    1.5114    1.9622    0.1536 H   0  0  0  0  0  0  0  0  0  0  0  0
    2.4562   -0.3323    0.1222 H   0  0  0  0  0  0  0  0  0  0  0  0
    0.9447   -2.2945   -0.0314 H   0  0  0  0  0  0  0  0  0  0  0  0
   -1.5114   -1.9622   -0.1535 H   0  0  0  0  0  0  0  0  0  0  0  0
  1  2  1  0
  2  3  2  0
  3  4  1  0
  4  5  2  0
  5  6  1  0
  6  1  2  0
  1  7  1  0
  2  8  1  0
  3  9  1  0
  4 10  1  0
  5 11  1  0
  6 12  1  0
M  END
