
     RDKit          3D

  5  4  0  0  0  0  0  0  0  0999 V2000
   -0.0535    0.1164    0.0708 C   0  0  0  0  0  0  0  0  0  0  0  0
   -0.1560    1.1837   -0.7606 F   0  0  0  0  0  0  0  0  0  0  0  0
   -1.3307   -1.0457   -0.2841 Cl  0  0  0  0  0  0  0  0  0  0  0  0
    1.6840   -0.7149   -0.1302 Br  0  0  0  0  0  0  0  0  0  0  0  0
   -0.1438    0.4605    1.1041 H   0  0  0  0  0  0  0  0  0  0  0  0
  1  2  1  0
  1  3  1  0
  1  4  1  0
  1  5  1  0
M  END
