
     RDKit          3D

  5  4  0  0  0  0  0  0  0  0999 V2000
    0.0000   -0.0000    0.0000 C   0  0  0  0  0  0  0  0  0  0  0  0
   -0.3688   -0.7929    0.6544 H   0  0  0  0  0  0  0  0  0  0  0  0
    0.8325   -0.3786   -0.5971 H   0  0  0  0  0  0  0  0  0  0  0  0
    0.3400    0.8431    0.6054 H   0  0  0  0  0  0  0  0  0  0  0  0
   -0.8037    0.3284   -0.6627 H   0  0  0  0  0  0  0  0  0  0  0  0
  1  2  1  0
  1  3  1  0
  1  4  1  0
  1  5  1  0
M  END
